   104  
Molecule frame=      0 
    C     1.388   0.381  -0.045   
    C     0.866  -0.905  -0.327   
    C    -0.460  -1.231   0.015   
    C    -1.228  -0.261   0.648   
    C     0.591   1.356   0.584   
    C    -0.710   1.011   0.930   
    C    -2.638  -0.250   1.074   
    N    -2.892   0.894   1.605   
    H     2.406   0.620  -0.326   
    H     1.488  -1.640  -0.821   
    H    -0.872  -2.204  -0.216   
    H     0.978   2.346   0.787   
    C    -1.803   1.774   1.532   
    N    -2.028   3.205   1.506   
    C    -7.784  -2.288  -1.172   
    C    -8.692  -1.203  -1.088   
    C    -8.341  -0.024  -0.402   
    C    -7.096   0.024   0.212   
    C    -6.511  -2.209  -0.573   
    C    -6.195  -1.050   0.127   
    C    -6.440   1.033   0.904   
    N    -5.249   0.563   1.285   
    H    -8.066  -3.182  -1.714   
    H    -9.660  -1.277  -1.566   
    H    -9.023   0.815  -0.351   
    H    -5.805  -3.025  -0.652   
    B    -4.234   1.349   2.016   
    C    -5.032  -0.643   0.769   
    N    -3.703  -1.197   0.775   
    C    -5.628   6.833   0.008   
    C    -4.236   7.058   0.148   
    C    -3.388   6.041   0.628   
    C    -3.964   4.826   0.978   
    C    -6.192   5.588   0.349   
    C    -5.345   4.605   0.843   
    C    -3.408   3.628   1.412   
    N    -4.403   2.755   1.590   
    H    -6.262   7.621  -0.376   
    H    -3.818   8.016  -0.131   
    H    -2.321   6.200   0.714   
    H    -7.251   5.403   0.225   
    C    -5.573   3.284   1.206   
    N    -6.741   2.443   1.033   
   Cl    -4.469   1.204   3.852   
    C    -0.132   6.192  -5.512   
    C    -0.336   6.169  -4.130   
    C     0.454   5.147  -3.594   
    C     1.146   4.539  -4.645   
    C     0.784   5.185  -5.830   
    C     0.630   4.439  -7.023   
    C     0.839   3.057  -7.016   
    C     1.206   2.403  -5.815   
    C     1.358   3.139  -4.637   
    C     0.874   2.365  -3.579   
    C     0.171   2.981  -2.518   
    C    -0.037   4.363  -2.523   
    C    -1.310   4.609  -2.003   
    C    -2.109   5.643  -2.544   
    C    -1.626   6.418  -3.601   
    C    -2.694   6.688  -4.461   
    C    -3.837   6.080  -3.934   
    C    -3.475   5.433  -2.751   
    C    -4.060   4.188  -2.416   
    C    -3.271   3.168  -1.882   
    C    -1.888   3.380  -1.678   
    C    -0.974   2.376  -1.997   
    C    -1.429   1.144  -2.521   
    C    -0.735   0.535  -3.569   
    C     0.424   1.150  -4.102   
    C     0.629   1.173  -5.484   
    C    -0.322   0.582  -6.350   
    C    -0.684   1.228  -7.535   
    C    -0.100   2.473  -7.870   
    C    -0.889   3.494  -8.407   
    C    -2.273   3.283  -8.614   
    C    -2.850   2.054  -8.284   
    C    -2.051   1.020  -7.741   
    C    -2.534   0.245  -6.682   
    C    -1.466  -0.025  -5.823   
    C    -1.673  -0.050  -4.423   
    C    -2.947   0.196  -3.900   
    C    -2.795   0.933  -2.723   
    C    -3.723   1.952  -2.400   
    C    -4.792   2.222  -3.259   
    C    -5.000   3.605  -3.268   
    C    -5.366   4.259  -4.468   
    C    -4.788   5.489  -4.799   
    C    -4.583   5.512  -6.181   
    C    -5.034   4.298  -6.705   
    C    -5.517   3.523  -5.646   
    C    -5.305   2.123  -5.638   
    C    -4.945   1.477  -4.452   
    C    -4.028   0.470  -4.771   
    C    -3.823   0.495  -6.153   
    C    -4.612   1.516  -6.689   
    C    -4.123   2.301  -7.761   
    C    -4.332   3.682  -7.769   
    C    -3.189   4.290  -8.296   
    C    -2.733   5.520  -7.766   
    C    -3.425   6.128  -6.715   
    C    -2.487   6.712  -5.860   
    C    -1.214   6.465  -6.383   
    C    -1.366   5.728  -7.561   
    C    -0.438   4.709  -7.883   
